[Format]      =  4.0
[Frequency]   =  0.25
[Precision]   =  1e-008
[MinAngle]    =  20
[Depth]       =  100
[LengthUnits] =  millimeters
[ProblemType] =  planar
[Coordinates] =  cartesian
[Comment]     =  "Example Induction Motor\n50 Hz, 2 HP, 220 V"
[PointProps]   = 0
[BdryProps]   = 5
  <BeginBdry>
    <BdryName> = "A=0"
    <BdryType> = 0
    <A_0> = 0
    <A_1> = 0
    <A_2> = 0
    <Phi> = 0
    <c0> = 0
    <c1> = 0
    <Mu_ssd> = 0
    <Sigma_ssd> = 0
  <EndBdry>
  <BeginBdry>
    <BdryName> = "apbc1"
    <BdryType> = 5
    <A_0> = 0
    <A_1> = 0
    <A_2> = 0
    <Phi> = 0
    <c0> = 0
    <c1> = 0
    <Mu_ssd> = 0
    <Sigma_ssd> = 0
  <EndBdry>
  <BeginBdry>
    <BdryName> = "apbc2"
    <BdryType> = 5
    <A_0> = 0
    <A_1> = 0
    <A_2> = 0
    <Phi> = 0
    <c0> = 0
    <c1> = 0
    <Mu_ssd> = 0
    <Sigma_ssd> = 0
  <EndBdry>
  <BeginBdry>
    <BdryName> = "apbc3"
    <BdryType> = 5
    <A_0> = 0
    <A_1> = 0
    <A_2> = 0
    <Phi> = 0
    <c0> = 0
    <c1> = 0
    <Mu_ssd> = 0
    <Sigma_ssd> = 0
  <EndBdry>
  <BeginBdry>
    <BdryName> = "apbc4"
    <BdryType> = 5
    <A_0> = 0
    <A_1> = 0
    <A_2> = 0
    <Phi> = 0
    <c0> = 0
    <c1> = 0
    <Mu_ssd> = 0
    <Sigma_ssd> = 0
  <EndBdry>
[BlockProps]  = 4
  <BeginBlock>
    <BlockName> = "Silicon Core Iron"
    <Mu_x> = 7000
    <Mu_y> = 7000
    <H_c> = 0
    <H_cAngle> = 0
    <J_re> = 0
    <J_im> = 0
    <Sigma> = 0
    <d_lam> = 0
    <Phi_h> = 0
    <Phi_hx> = 0
    <Phi_hy> = 0
    <LamType> = 0
    <LamFill> = 1
    <NStrands> = 0
    <WireD> = 0
    <BHPoints> = 0
  <EndBlock>
  <BeginBlock>
    <BlockName> = "Aluminum"
    <Mu_x> = 1
    <Mu_y> = 1
    <H_c> = 0
    <H_cAngle> = 0
    <J_re> = 0
    <J_im> = 0
    <Sigma> = 34.450000000000003
    <d_lam> = 0
    <Phi_h> = 0
    <Phi_hx> = 0
    <Phi_hy> = 0
    <LamType> = 0
    <LamFill> = 1
    <NStrands> = 0
    <WireD> = 0
    <BHPoints> = 0
  <EndBlock>
  <BeginBlock>
    <BlockName> = "Air"
    <Mu_x> = 1
    <Mu_y> = 1
    <H_c> = 0
    <H_cAngle> = 0
    <J_re> = 0
    <J_im> = 0
    <Sigma> = 0
    <d_lam> = 0
    <Phi_h> = 0
    <Phi_hx> = 0
    <Phi_hy> = 0
    <LamType> = 0
    <LamFill> = 1
    <NStrands> = 0
    <WireD> = 0
    <BHPoints> = 0
  <EndBlock>
  <BeginBlock>
    <BlockName> = "Stator Winding"
    <Mu_x> = 1
    <Mu_y> = 1
    <H_c> = 0
    <H_cAngle> = 0
    <J_re> = 0
    <J_im> = 0
    <Sigma> = 0
    <d_lam> = 0
    <Phi_h> = 0
    <Phi_hx> = 0
    <Phi_hy> = 0
    <LamType> = 0
    <LamFill> = 1
    <NStrands> = 0
    <WireD> = 0
    <BHPoints> = 0
  <EndBlock>
[CircuitProps]  = 3
  <BeginCircuit>
    <CircuitName> = "A"
    <TotalAmps_re> = 1
    <TotalAmps_im> = 0
    <CircuitType> = 1
  <EndCircuit>
  <BeginCircuit>
    <CircuitName> = "B"
    <TotalAmps_re> = -0.5
    <TotalAmps_im> = 0.8660254037844386
    <CircuitType> = 1
  <EndCircuit>
  <BeginCircuit>
    <CircuitName> = "C"
    <TotalAmps_re> = -0.5
    <TotalAmps_im> = -0.86602540378443904
    <CircuitType> = 1
  <EndCircuit>
[NumPoints] = 171
64.999999999999986	0	0	2
12.5	0	0	1
39.5	0.50000000000000089	0	0
42.250000000000007	1.9000000000000004	0	0
53.000000000000007	1.8999999999999995	0	0
40.296178009193994	2.5216389216837634	0	0
40.931138364509231	2.5771907545622392	0	0
53.794513696954262	4.7064101083735412	0	0
53.92217954228289	2.8980257779750325	0	0
41.278196027198625	9.2077702371510028	0	0
51.864879372079862	11.074488147070504	0	0
40.121866523698671	4.5140283178672558	0	0
40.756826879013907	4.5695801507457308	0	0
41.938059102332964	5.4655007757046121	0	0
52.524742447214201	7.3322186856241141	0	0
39.2461105167299	9.4806874386102837	0	0
39.861777922954325	9.6456550229142834	0	0
52.599743577379314	12.217486467925504	0	0
52.159994619609684	13.97622843553612	0	0
53.60621736773362	6.5094899587674071	0	0
39.052174955885867	16.235767035002731	0	0
49.153870629334385	19.912483575753672	0	0
38.72847242652486	11.412539091188423	0	0
39.344139832749285	11.577506675492423	0	0
40.351851500523402	12.664935076016279	0	0
50.45354717397192	16.341651616767219	0	0
37.003569815705134	16.15167006517396	0	0
37.581237530243349	16.421040944332027	0	0
49.679091020631603	21.165725013894516	0	0
48.940620499979104	22.82138613399777	0	0
51.661457404520604	15.719218137073556	0	0
35.63957330989254	22.770448267190435	0	0
44.949346400575251	28.145448267190432	0	0
36.15833329222373	17.964285639247255	0	0
36.736001006761953	18.233656518405326	0	0
37.539573309892546	19.479551732809565	0	0
46.849346400575257	24.854551732809568	0	0
33.636694370539971	22.331892369946733	0	0
34.158810252199714	22.697481846103898	0	0
45.248964422055025	29.47085371568998	0	0
44.234210391605558	30.973127562956488	0	0
48.146990200030061	24.451325826592903	0	0
31.144081263372399	28.613260951182344	0	0
39.379059026901416	35.523227755312647	0	0
32.48954149783787	23.970196458524715	0	0
33.01165737949762	24.33578593468188	0	0
33.586674180181248	25.70229206733023	0	0
41.821651943710265	32.612258871460526	0	0
29.247784987914571	27.833571425541475	0	0
29.698484809835001	28.284271247461902	0	0
39.4439709365951	36.880525440305753	0	0
38.183766184073562	38.183766184073562	0	0
43.169601061864192	32.440492353839097	0	0
25.702292067330237	33.586674180181248	0	0
32.612258871460533	41.821651943710265	0	0
27.833571425541479	29.247784987914571	0	0
28.284271247461909	29.698484809835001	0	0
28.613260951182351	31.144081263372399	0	0
35.523227755312654	39.379059026901416	0	0
23.970196458524718	32.48954149783787	0	0
24.335785934681887	33.01165737949762	0	0
32.440492353839105	43.169601061864192	0	0
30.973127562956495	44.234210391605558	0	0
36.88052544030576	39.4439709365951	0	0
19.479551732809572	37.539573309892539	0	0
24.854551732809579	46.849346400575257	0	0
22.331892369946736	33.636694370539963	0	0
22.697481846103905	34.158810252199714	0	0
22.770448267190442	35.639573309892533	0	0
28.145448267190442	44.949346400575251	0	0
17.964285639247265	36.158333292223723	0	0
18.233656518405333	36.736001006761953	0	0
24.451325826592914	48.146990200030054	0	0
22.821386133997777	48.940620499979097	0	0
29.470853715689991	45.248964422055018	0	0
12.664935076016283	40.351851500523402	0	0
16.341651616767223	50.453547173971913	0	0
16.15167006517396	37.003569815705127	0	0
16.421040944332031	37.581237530243349	0	0
16.235767035002734	39.052174955885867	0	0
19.912483575753676	49.153870629334378	0	0
11.412539091188426	38.728472426524853	0	0
11.577506675492426	39.344139832749285	0	0
15.719218137073563	51.661457404520597	0	0
13.976228435536129	52.159994619609684	0	0
21.165725013894523	49.679091020631596	0	0
5.4655007757046157	41.938059102332964	0	0
7.3322186856241194	52.524742447214201	0	0
9.4806874386102873	39.2461105167299	0	0
9.645655022914287	39.861777922954325	0	0
9.2077702371510064	41.278196027198625	0	0
11.074488147070509	51.864879372079862	0	0
4.5140283178672593	40.121866523698671	0	0
4.5695801507457343	40.756826879013907	0	0
6.5094899587674124	53.60621736773362	0	0
4.7064101083735466	53.794513696954262	0	0
12.217486467925509	52.599743577379314	0	0
2.521638921683766	40.296178009193994	0	0
2.5771907545622419	40.931138364509231	0	0
1.900000000000003	42.250000000000007	0	0
1.9000000000000028	53.000000000000007	0	0
2.8980257779750356	53.92217954228289	0	0
38.620912998160193	8.3021129351835086	0	0
39.996874877920149	0.49999999999999956	0	0
39.105330185506482	8.4126779970777292	0	0
38.398392064203875	9.2770408473653312	0	0
38.882809251550164	9.3876059092595519	0	0
35.805212151704346	16.687923261192342	0	0
36.252880947953209	16.903509191097914	0	0
35.371328412586777	17.588892129094759	0	0
35.818997208835654	17.804478059000331	0	0
31.194088458416545	24.236931432185965	0	0
31.58256088082198	24.546727851368981	0	0
30.570598656557816	25.018762914653994	0	0
30.959071078963241	25.328559333837006	0	0
25.01876291465399	30.570598656557813	0	0
25.328559333837006	30.959071078963248	0	0
24.236931432185958	31.194088458416545	0	0
24.546727851368978	31.58256088082198	0	0
17.588892129094752	35.371328412586777	0	0
17.804478059000331	35.818997208835647	0	0
16.687923261192331	35.805212151704339	0	0
16.903509191097903	36.252880947953209	0	0
9.2770408473653241	38.398392064203883	0	0
9.387605909259543	38.882809251550171	0	0
8.3021129351835015	38.620912998160193	0	0
8.4126779970777221	39.105330185506482	0	0
0.49999999999999289	39.5	0	0
0.49999999999999201	39.996874877920149	0	0
0	65	0	0
39.500000000000014	0	0	0
40.375	0	0	0
0	39.500000000000007	0	0
0	12.5	0	0
0	40.375	0	0
37.017886023569325	6.3848347156391787	0	0
37.510529718423875	2.0125009921089108	0	0
24.993968283861083	5.0300645547891527	0	0
25.48661197871564	0.65773083125888521	0	0
23.248022653531173	10.465631500339654	0	0
34.669010950262418	14.462008149997175	0	0
24.701250526133904	6.3125448469828349	0	0
36.122238822865157	10.308921496640359	0	0
20.336324092064675	15.376407981791775	0	0
30.581686902726915	21.81399610762735	0	0
22.677265228732161	11.650821505187325	0	0
32.922628039394397	18.088409631022898	0	0
16.404877323527902	19.516147160748712	0	0
24.960869375885128	28.072139213105938	0	0
19.516147160748712	16.404877323527902	0	0
28.072139213105938	24.960869375885132	0	0
11.650821505187322	22.677265228732157	0	0
18.088409631022895	32.922628039394397	0	0
15.376407981791772	20.336324092064675	0	0
21.813996107627347	30.581686902726918	0	0
6.3125448469828314	24.701250526133904	0	0
10.30892149664035	36.122238822865157	0	0
10.465631500339647	23.248022653531173	0	0
14.462008149997168	34.669010950262425	0	0
0.65773083125888121	25.486611978715636	0	0
2.0125009921089045	37.510529718423882	0	0
5.0300645547891483	24.993968283861086	0	0
6.3848347156391716	37.017886023569318	0	0
25	0	0	0
0	25	0	0
24.37319780454559	5.5630233489078602	0	0
22.524221697560478	10.847093477938955	0	0
19.545787061700747	15.58724504646834	0	0
15.587245046468338	19.545787061700747	0	0
10.847093477938948	22.524221697560481	0	0
5.5630233489078558	24.37319780454559	0	0
[NumSegments] = 89
103	2	-1	0	0	4
3	4	-1	0	0	5
5	6	-1	0	0	5
10	9	-1	0	0	5
11	12	-1	0	0	5
13	14	-1	0	0	5
15	16	-1	0	0	5
21	20	-1	0	0	5
22	23	-1	0	0	5
24	25	-1	0	0	5
26	27	-1	0	0	5
32	31	-1	0	0	5
34	33	-1	0	0	5
36	35	-1	0	0	5
37	38	-1	0	0	5
43	42	-1	0	0	5
44	45	-1	0	0	5
47	46	-1	0	0	5
49	48	-1	0	0	5
54	53	-1	0	0	5
55	56	-1	0	0	5
57	58	-1	0	0	5
59	60	-1	0	0	5
65	64	-1	0	0	5
67	66	-1	0	0	5
69	68	-1	0	0	5
70	71	-1	0	0	5
75	76	-1	0	0	5
77	78	-1	0	0	5
79	80	-1	0	0	5
81	82	-1	0	0	5
86	87	-1	0	0	5
89	88	-1	0	0	5
91	90	-1	0	0	5
92	93	-1	0	0	5
97	98	-1	0	0	5
100	99	-1	0	0	5
102	104	-1	0	0	4
106	105	-1	0	0	4
108	107	-1	0	0	4
109	110	-1	0	0	4
111	112	-1	0	0	4
114	113	-1	0	0	4
116	115	-1	0	0	4
118	117	-1	0	0	4
120	119	-1	0	0	4
121	122	-1	0	0	4
123	124	-1	0	0	4
125	126	-1	0	0	4
127	128	-1	0	0	4
2	130	-1	0	0	0
102	105	-1	0	0	0
107	109	-1	0	0	0
111	113	-1	0	0	0
115	117	-1	0	0	0
121	119	-1	0	0	0
123	125	-1	0	0	0
6	12	-1	0	0	5
23	16	-1	0	0	5
27	34	-1	0	0	5
45	38	-1	0	0	5
56	49	-1	0	0	5
60	67	-1	0	0	5
78	71	-1	0	0	5
89	82	-1	0	0	5
93	98	-1	0	0	5
131	0	-1	5	0	5
127	132	-1	0	0	0
134	129	-1	5	0	5
135	137	-1	0	0	4
138	136	-1	0	0	4
140	139	-1	0	0	4
142	141	-1	0	0	4
144	143	-1	0	0	4
146	145	-1	0	0	4
148	147	-1	0	0	4
150	149	-1	0	0	4
152	151	-1	0	0	4
154	153	-1	0	0	4
156	155	-1	0	0	4
158	157	-1	0	0	4
160	159	-1	0	0	4
161	162	-1	0	0	4
132	164	-1	3	0	4
164	133	-1	2	0	4
163	1	-1	2	0	4
130	163	-1	3	0	4
134	132	-1	4	0	0
131	130	-1	4	0	0
[NumArcSegments] = 101
1	133	90	2.5	1	0	4
6	3	60	10	0	0	5
8	7	1.923621196237385	10	0	0	5
4	8	100	10	0	0	5
13	12	60	10	0	0	5
16	9	60	10	0	0	5
11	15	7.1615287138308048	1	0	0	5
17	18	1.923621196237385	10	0	0	5
10	17	100	10	0	0	5
7	19	1.923621196237385	10	0	0	5
19	14	100	10	0	0	5
24	23	60	10	0	0	5
27	20	60	10	0	0	5
22	26	7.1615287138308048	1	0	0	5
28	29	1.923621196237385	10	0	0	5
21	28	100	10	0	0	5
18	30	1.923621196237385	10	0	0	5
30	25	100	10	0	0	5
35	34	60	10	0	0	5
38	31	60	10	0	0	5
33	37	7.1615287138308048	1	0	0	5
39	40	1.923621196237385	10	0	0	5
32	39	100	10	0	0	5
29	41	1.923621196237385	10	0	0	5
41	36	100	10	0	0	5
46	45	60	10	0	0	5
49	42	60	10	0	0	5
44	48	7.1615287138308048	1	0	0	5
50	51	1.923621196237385	10	0	0	5
43	50	100	10	0	0	5
40	52	1.923621196237385	10	0	0	5
52	47	100	10	0	0	5
57	56	60	10	0	0	5
60	53	60	10	0	0	5
55	59	7.1615287138308048	1	0	0	5
61	62	1.923621196237385	10	0	0	5
54	61	100	10	0	0	5
51	63	1.923621196237385	10	0	0	5
63	58	100	10	0	0	5
68	67	60	10	0	0	5
71	64	60	10	0	0	5
66	70	7.1615287138308048	1	0	0	5
72	73	1.923621196237385	10	0	0	5
65	72	100	10	0	0	5
62	74	1.923621196237385	10	0	0	5
74	69	100	10	0	0	5
79	78	60	10	0	0	5
82	75	60	10	0	0	5
77	81	7.1615287138308048	1	0	0	5
83	84	1.923621196237385	10	0	0	5
76	83	100	10	0	0	5
73	85	1.923621196237385	10	0	0	5
85	80	100	10	0	0	5
90	89	60	10	0	0	5
93	86	60	10	0	0	5
88	92	7.1615287138308048	1	0	0	5
94	95	1.923621196237385	10	0	0	5
87	94	100	10	0	0	5
84	96	1.923621196237385	10	0	0	5
96	91	100	10	0	0	5
99	98	60	10	0	0	5
97	134	3.5807643569154055	1	0	0	5
95	101	1.923621196237385	10	0	0	5
101	100	100	10	0	0	5
103	104	11.424711064752977	1	0	0	4
106	108	11.424711064752977	1	0	0	4
110	112	11.424711064752977	1	0	0	4
114	116	11.424711064752977	1	0	0	4
118	120	11.424711064752977	1	0	0	4
122	124	11.424711064752977	1	0	0	4
126	128	11.424711064752977	1	0	0	4
0	129	89.999999999999986	0.82569999999999999	1	0	5
131	5	3.5807643569154024	1	0	0	5
2	136	85	10	0	0	4
135	102	85	10	0	0	4
138	163	80	10	0	0	4
164	159	80	10	0	0	4
141	165	80	10	0	0	4
145	166	80	10	0	0	4
149	167	80	10	0	0	4
153	168	80	10	0	0	4
157	169	80	10	0	0	4
161	170	80	10	0	0	4
170	155	80	10	0	0	4
169	151	80	10	0	0	4
168	147	80	10	0	0	4
167	143	80	10	0	0	4
166	139	80	10	0	0	4
165	137	80	10	0	0	4
105	142	85	10	0	0	4
140	107	85	10	0	0	4
109	146	85	10	0	0	4
144	111	85	10	0	0	4
113	150	85	10	0	0	4
148	115	85	10	0	0	4
117	154	85	10	0	0	4
152	119	85	10	0	0	4
121	158	85	10	0	0	4
156	123	85	10	0	0	4
125	162	85	10	0	0	4
160	127	85	10	0	0	4
[NumHoles] = 0
[NumBlockLabels] = 20
4.2569483988724688	47.509771524701492	4	1	2	0	3	44	0
11.559064570553259	46.067863269895426	4	1	2	0	3	44	0
20.103940404104719	43.91493573066235	4	1	2	0	3	44	0
26.910488110825121	39.103396650893885	4	1	3	0	2	-44	0
33.248833344110707	33.529764109751085	4	1	3	0	2	-44	0
39.192448850946334	26.886464123531656	4	1	3	0	2	-44	0
42.783807532247593	19.74628605696762	4	1	1	0	1	44	0
45.110007981640621	11.913739123227387	4	1	1	0	1	44	0
45.582048954545165	3.5407362377687077	4	1	1	0	1	44	0
0.90000000000000524	33.5	2	1	0	0	4	1	0
7.3000000000000105	31.999999999999996	2	1	0	0	4	1	0
14.999999999999998	29.600000000000001	2	1	0	0	4	1	0
20.199999999999992	25.799999999999997	2	1	0	0	4	1	0
25.800000000000004	20.600000000000001	2	1	0	0	4	1	0
28.999999999999996	14	2	1	0	0	4	1	0
31.199999999999992	6.7000000000000002	2	1	0	0	4	1	0
31.599999999999994	0.29999999999999982	2	1	0	0	4	1	0
40.410014741738578	3.4852271909404284	3	0.10000000000000001	0	0	2	1	0
16	16	1	1	0	0	4	1	0
40	40	1	1	0	0	5	1	0
